output/nygrid_compact_2019/ac_checkpoint/S2_2019_WINTER_PEAK_PUBLIC/fresh_PF_branch_audit.csv
branch_row,device_key,from_bus,to_bus,online,rate_a_mva,from_mva,to_mva,from_overload_mva,to_overload_mva,angle_deg,angle_min_deg,angle_max_deg,angle_below_min_deg,angle_above_max_deg,violated,invalid_limit_bounds,stored_terminal_flow_error_mva,stored_terminal_flow_inconsistent
1,NPCC_S7:BRANCH_ROW:33,37,38,1,2500,113.52044544902,110.377087888926,0,0,-0.844115249934664,-360,360,0,0,0,0,1.61445332534658e-12,0
2,NPCC_S7:BRANCH_ROW:34,37,39,1,3388,912.610875797085,906.433113039815,0,0,3.22867033552516,-360,360,0,0,0,0,6.20401062844496e-12,0
3,NPCC_S7:BRANCH_ROW:35,37,40,1,2500,80.0006850049945,83.532529759626,0,0,0.900711767815988,-360,360,0,0,0,0,7.75924379604531e-13,0
4,NPCC_S7:BRANCH_ROW:36,37,43,1,3745.98196383403,859.543692043437,871.753828728222,0,0,-7.83212841488916,-360,360,0,0,0,0,1.70553939695736e-12,0
5,NPCC_S7:BRANCH_ROW:37,38,69,1,1216,414.74878502846,423.187158541724,0,0,-9.7019101276046,-360,360,0,0,0,0,2.48181908042582e-13,0
6,NPCC_S7:BRANCH_ROW:38,39,73,1,2500,561.73741998624,558.199346522706,0,0,4.91578667951797,-360,360,0,0,0,0,1.60582658281783e-12,0
7,NPCC_S7:BRANCH_ROW:39,39,73,1,2500,561.73741998624,558.199346522706,0,0,4.91578667951797,-360,360,0,0,0,0,1.60582658281783e-12,0
8,NPCC_S7:BRANCH_ROW:40,40,44,1,1328.76341358641,287.356123718976,294.285187526546,0,0,-7.67232972583057,-360,360,0,0,0,0,1.74191692851356e-13,0
9,NPCC_S7:BRANCH_ROW:41,41,42,1,2500,160.458369604879,156.570178677225,0,0,-0.424099200529795,-360,360,0,0,0,0,3.12638803734444e-12,0
10,NPCC_S7:BRANCH_ROW:42,41,45,1,314.254622579561,55.4117962741653,60.9334765457722,0,0,-6.85300437136191,-360,360,0,0,0,0,1.33498859810686e-13,0
11,NPCC_S7:BRANCH_ROW:43,43,44,1,2500,222.202794268986,220.184498599532,0,0,1.06051045687458,-360,360,0,0,0,0,3.17764371615651e-14,0
12,NPCC_S7:BRANCH_ROW:44,43,50,1,3463.47124449306,459.331926625615,463.785570097653,0,0,-5.92332137225484,-360,360,0,0,0,0,5.83837988782846e-14,0
13,NPCC_S7:BRANCH_ROW:45,43,50,1,3463.47124449306,459.331926625615,463.785570097653,0,0,-5.92332137225484,-360,360,0,0,0,0,5.83837988782846e-14,0
14,NPCC_S7:BRANCH_ROW:46,44,45,1,2500,359.656529847177,354.805265825838,0,0,3.55678456207322,-360,360,0,0,0,0,4.76434667411928e-13,0
15,NPCC_S7:BRANCH_ROW:47,44,48,1,6896.14528055676,372.776039012072,387.986899528214,0,0,-19.7771498309995,-360,360,0,0,0,0,2.73927817690396e-13,0
16,NPCC_S7:BRANCH_ROW:48,45,46,1,2040.85471944324,98.104219093429,104.453748921483,0,0,-19.3288917726876,-360,360,0,0,0,0,1.58882185807825e-14,0
17,NPCC_S7:BRANCH_ROW:49,45,51,1,489.56239109923,89.2449928106719,92.580300682233,0,0,-8.96430452862935,-360,360,0,0,0,0,4.54969341307734e-14,0
18,NPCC_S7:BRANCH_ROW:50,45,71,1,166.495119914644,36.4676491056038,40.0508999105775,0,0,-11.027599285053,-360,360,0,0,0,0,1.77635683940025e-15,0
19,NPCC_S7:BRANCH_ROW:51,46,47,1,2500,120.981871852564,125.763303049124,0,0,-8.06758182002546,-360,360,0,0,0,0,2.92964275105423e-14,0
20,NPCC_S7:BRANCH_ROW:52,46,49,1,2500,6.53476151192827,3.69107349511997,0,0,1.15809741763421,-360,360,0,0,0,0,4.44089209850063e-16,0
21,NPCC_S7:BRANCH_ROW:53,47,48,1,2500,259.929385407571,259.929386501264,0,0,4.06253919964031,-360,360,0,0,0,0,4.13402929296227e-13,0
22,NPCC_S7:BRANCH_ROW:54,50,51,1,2500,183.412856027163,180.575059980194,0,0,1.57631186257328,-360,360,0,0,0,0,3.17764371615651e-14,0
23,NPCC_S7:BRANCH_ROW:55,50,52,1,2858.06690137886,261.112976600345,290.532448069094,0,0,-2.79208215694367,-360,360,0,0,0,0,1.4210854715202e-14,0
24,NPCC_S7:BRANCH_ROW:56,51,53,1,290.964700741948,10.5625414889485,16.1166826685815,0,0,-0.492757406204383,-360,360,0,0,0,0,1.77635683940025e-15,0
25,NPCC_S7:BRANCH_ROW:57,51,72,1,2500,162.832862283825,166.971858998485,0,0,-1.88573213734377,-360,360,0,0,0,0,1.90958360235527e-14,0
26,NPCC_S7:BRANCH_ROW:58,52,53,1,2500,210.556754680172,207.924057171823,0,0,3.87563661331257,-360,360,0,0,0,0,5.72857867687912e-14,0
27,NPCC_S7:BRANCH_ROW:59,53,55,1,997.983883346124,139.12832662514,147.161149557991,0,0,-7.67925902931205,-360,360,0,0,0,0,7.105427357601e-15,0
28,NPCC_S7:BRANCH_ROW:60,53,65,1,785.968397879188,19.4108172403475,19.545341793078,0,0,0.746691289855207,-360,360,0,0,0,0,1.77635683940025e-15,0
29,NPCC_S7:BRANCH_ROW:61,54,56,1,789.941803,158.425335243502,161.932940217217,0,0,-0.761786187489257,-360,360,0,0,0,0,2.35081214474306e-12,0
30,NPCC_S7:BRANCH_ROW:62,54,62,1,789.941803,50.2229642490252,45.953691755548,0,0,1.56582209585014,-360,360,0,0,0,0,4.31519453739469e-13,0
31,NPCC_S7:BRANCH_ROW:65,55,57,1,789.941803,21.7509811640487,21.3273073513866,0,0,0.418393421484268,-360,360,0,0,0,0,3.89733510327135e-13,0
32,NPCC_S7:BRANCH_ROW:66,55,59,1,789.941803,7.24242850551055,10.1647834942681,0,0,0.216199804191042,-360,360,0,0,0,0,1.77635683940025e-15,0
33,NPCC_S7:BRANCH_ROW:67,56,58,1,2500,232.15958504025,231.718737161928,0,0,1.63784794921482,-360,360,0,0,0,0,1.10640796070159e-12,0
34,NPCC_S7:BRANCH_ROW:68,57,59,1,2500,8.33619982858076,11.492310284382,0,0,-0.202193617293226,-360,360,0,0,0,0,2.74452880354767e-13,0
35,NPCC_S7:BRANCH_ROW:69,58,60,1,2500,80.1588471256174,75.2768956346909,0,0,-1.20993602827913,-360,360,0,0,0,0,8.58110903886847e-13,0
36,NPCC_S7:BRANCH_ROW:70,58,62,1,2500,79.7319549543781,79.306875348548,0,0,0.689760334124578,-360,360,0,0,0,0,1.11047168673563e-12,0
37,NPCC_S7:BRANCH_ROW:71,59,61,1,2500,34.2244833503346,36.2595561611111,0,0,-2.60446661280902,-360,360,0,0,0,0,7.32410687763558e-15,0
38,NPCC_S7:BRANCH_ROW:73,62,63,1,620,125.229615230593,122.874228596895,0,0,4.85242188907888,-360,360,0,0,0,0,2.92964275105423e-14,0
39,NPCC_S7:BRANCH_ROW:74,63,64,1,2500,103.347409611241,102.873740087855,0,0,2.29316011121087,-360,360,0,0,0,0,1.43214466921978e-14,0
40,NPCC_S7:BRANCH_ROW:75,63,67,1,2500,29.6220537715452,20.1641753521159,0,0,0.96784705684782,-360,360,0,0,0,0,4.44089209850063e-16,0
41,NPCC_S7:BRANCH_ROW:76,64,65,1,2500,31.9939939640159,31.548122900836,0,0,1.26428990782053,-360,360,0,0,0,0,3.99680288865056e-15,0
42,NPCC_S7:BRANCH_ROW:77,64,68,1,2500,17.8582959267971,23.1114221648765,0,0,-2.37024126311435,-360,360,0,0,0,0,9.64670895048707e-14,0
43,NPCC_S7:BRANCH_ROW:78,66,67,1,2500,108.857042446365,108.355639195245,0,0,-1.16379813949173,-360,360,0,0,0,0,1.46482137552712e-14,0
44,NPCC_S7:BRANCH_ROW:79,66,69,1,2500,216.993076670526,214.854280042151,0,0,2.80498348607248,-360,360,0,0,0,0,2.92964275105423e-14,0
45,NPCC_S7:BRANCH_ROW:81,67,68,1,2500,50.5839445780512,50.0828528464327,0,0,-1.0449282087513,-360,360,0,0,0,0,8.69544363696433e-13,0
46,NPCC_S7:BRANCH_ROW:82,67,70,1,2500,5.89765560532776,13.1443478129322,0,0,0.144322308408132,-360,360,0,0,0,0,8.88178419700125e-16,0
47,NPCC_S7:BRANCH_ROW:84,68,71,1,2500,14.2161855082806,9.59712401473593,0,0,1.31730253086038,-360,360,0,0,0,0,1.44798281599577e-13,0
48,NPCC_S7:BRANCH_ROW:85,69,71,1,2500,210.61813263347,208.028199566195,0,0,-3.69640730345512,-360,360,0,0,0,0,3.17764371615651e-14,0
49,NPCC_S7:BRANCH_ROW:86,70,71,1,2500,13.1443478129323,13.0796608461038,0,0,0.128052013700955,-360,360,0,0,0,0,1.98602732259782e-15,0
50,NPCC_S7:BRANCH_ROW:87,71,72,1,2500,29.4100965403479,23.0811405424864,0,0,0.1775626190799,-360,360,0,0,0,0,3.5527136788005e-15,0
51,NPCC_S7:BRANCH_ROW:88,73,74,0,1599.84337349398,0,0,0,0,2.80341616454831,-360,360,0,0,0,0,0,0
52,NPCC_S7:BRANCH_ROW:89,73,74,0,1599.84337349398,0,0,0,0,2.80341616454831,-360,360,0,0,0,0,0,0
53,NPCC_S7:BRANCH_ROW:90,74,77,1,2500,120.702719641434,120.036579258948,0,0,0.245508428566028,-360,360,0,0,0,0,2.84355838317334e-14,0
54,NPCC_S7:BRANCH_ROW:91,74,78,1,2889.50495049505,617.767298220271,615.125115848305,0,0,1.32056148474164,-360,360,0,0,0,0,6.88346870488963e-13,0
55,NPCC_S7:BRANCH_ROW:92,74,78,1,2889.50495049505,617.767298220271,615.125115848305,0,0,1.32056148474164,-360,360,0,0,0,0,6.88346870488963e-13,0
56,NPCC_S7:BRANCH_ROW:94,76,77,0,4611.31325301205,0,0,0,0,-0.0101642143672231,-360,360,0,0,0,0,0,0
57,NPCC_S7:BRANCH_ROW:95,78,79,1,908.848753535103,237.056073014995,236.849773670397,0,0,1.72317381825195,-360,360,0,0,0,0,2.8477166477148e-14,0
58,NPCC_S7:BRANCH_ROW:96,78,80,1,984.654731457801,72.3806016062294,63.8696132711364,0,0,1.75036076214834,-360,360,0,0,0,0,1.00485917355762e-14,0
59,NPCC_S7:BRANCH_ROW:97,78,81,1,503.818330764024,49.6610752215256,49.4846231511732,0,0,-0.619604632406414,-360,360,0,0,0,0,9.97294254120945e-14,0
60,NPCC_S7:BRANCH_ROW:98,78,82,1,451.473569126203,169.996900359979,169.793974044353,0,0,2.48804234402408,-360,360,0,0,0,0,1.11022302462516e-15,0
61,NPCC_S7:BRANCH_ROW:219,40,41,1,2500,346.072745342354,345.524946712096,0,0,2.73745920760456,-360,360,0,0,0,0,1.54642811666168e-12,0
62,NPCC_S7:BRANCH_ROW:220,49,48,1,2500,70.0971786624784,71.3991931423731,0,0,-5.16314003801936,-360,360,0,0,0,0,1.15667977213006e-13,0
63,NPCC_S7:BRANCH_ROW:222,54,52,1,4583.01611665388,474.760239928139,477.110567786469,0,0,5.35336610079264,-360,360,0,0,0,0,1.68054998689002e-12,0
64,NPCC_S7:BRANCH_ROW:223,54,55,1,2500,253.038215842716,254.551955659528,0,0,1.54974368479316,-360,360,0,0,0,0,2.8202818731529e-12,0
65,NPCC_S7:BRANCH_ROW:224,56,57,1,2500,40.7090438456453,40.5108481855213,0,0,2.72992329376668,-360,360,0,0,0,0,9.7363964062896e-14,0
66,NPCC_S7:BRANCH_ROW:225,58,59,1,2500,204.582658423832,203.852247497948,0,0,0.88988172725864,-360,360,0,0,0,0,1.59794726606271e-12,0
67,NPCC_S7:BRANCH_ROW:226,60,61,1,2500,16.6521619012801,16.6521613513803,0,0,-0.504648857271249,-360,360,0,0,0,0,3.92366074010659e-15,0
68,NPCC_S7:BRANCH_ROW:227,75,76,1,2500,78.3036600943755,78.2994868347473,0,0,0.274717659885425,-360,360,0,0,0,0,3.14921414766066e-12,0
69,NPCC_S7:BRANCH_ROW:234,38,39,1,1216,430.012194833711,427.465540288549,0,0,4.07278558545982,-360,360,0,0,0,0,8.74350192253255e-13,0
70,NPCC_S7:BRANCH_ROW:235,73,9002,0,2432,0,0,0,0,1.47474991002076,-360,360,0,0,0,0,0,0
71,NPCC_S7:BRANCH_ROW:236,9002,74,0,2432,0,0,0,0,1.32866625452755,-360,360,0,0,0,0,0,0
72,NPCC_S7:BRANCH_ROW:237,74,78,1,866.851485148515,185.856908890535,185.569905369741,0,0,1.32056148474164,-360,360,0,0,0,0,2.84529173193728e-14,0
73,NPCC_S7:BRANCH_ROW:238,77,78,1,650.138613861386,113.605685009684,113.430630021832,0,0,1.07505305617561,-360,360,0,0,0,0,2.84225767789075e-14,0
74,NPCC_S7:BRANCH_ROW:239,78,81,1,1158.78216075726,114.034137285875,113.628959598417,0,0,-0.619604632406414,-360,360,0,0,0,0,1.4210854715202e-14,0
75,NPCC_S7:BRANCH_ROW:240,78,79,1,1390.53859290871,362.114287241704,361.799155301917,0,0,1.72317381825195,-360,360,0,0,0,0,3.5527136788005e-15,0
76,NPCC_S7:BRANCH_ROW:241,78,82,1,1390.53859290871,522.719391192823,522.095417932508,0,0,2.48804234402408,-360,360,0,0,0,0,2.27763653791027e-13,0
77,NPCC_S7:BRANCH_ROW:242,78,9003,1,2865.3452685422,7.3507321638009,7.34773530276876,0,0,-0.0659534794264331,-360,360,0,0,0,0,1.95280624319248e-13,0
78,NPCC_S7:BRANCH_ROW:243,9003,80,1,5000,190.844560328933,190.487114189685,0,0,1.81631424157477,-360,360,0,0,0,0,2.27738108997785e-13,0
79,NPCC_S7:BRANCH_ROW:244,81,80,1,2950,165.014586497916,165.225436248559,0,0,2.36996539455475,-360,360,0,0,0,0,2.86428933843956e-14,0
80,NPCC_S7:BRANCH_ROW:245,39,9001,1,5000,171.511843014339,171.398192592031,0,0,2.86826192581333,-360,360,0,0,0,0,1.16767597756569e-13,0
81,NPCC_S7:BRANCH_ROW:246,9001,73,1,5000,171.398192592031,171.580036535872,0,0,2.04752475370464,-360,360,0,0,0,0,1.57261263262893e-12,0
82,PERFORM2019:AC:651:858:1,73,858,1,1216,254.207490313861,251.363977788459,0,0,0.629517968599602,-360,360,0,0,0,0,6.27640944088142e-12,0
83,PERFORM2019:AC:651:858:2,73,858,1,1216,254.207623433776,251.36387540058,0,0,0.629517968599602,-360,360,0,0,0,0,3.21558075708022e-12,0
84,PERFORM2019:AC:651:902:1,73,9002,1,1216,254.683674943119,249.159193434814,0,0,1.47474991002076,-360,360,0,0,0,0,1.59087011799856e-12,0
85,PERFORM2019:AC:651:902:2,73,9002,1,1216,254.683807527109,249.159134994655,0,0,1.47474991002076,-360,360,0,0,0,0,1.61810410631231e-12,0
86,PERFORM2019:AC:858:902:1,858,9002,1,1216,251.364028982927,248.643771757711,0,0,0.845231941421157,-360,360,0,0,0,0,4.03009918059275e-13,0
87,PERFORM2019:AC:858:902:2,858,9002,1,1216,251.363824207169,248.643888969274,0,0,0.845231941421157,-360,360,0,0,0,0,4.00575359962636e-13,0
88,PERFORM2019:AC:897:902:1,9002,74,1,1216,497.803662919992,496.495857615288,0,0,1.32866625452755,-360,360,0,0,0,0,8.03887338846093e-13,0
89,PERFORM2019:AC:897:902:2,9002,74,1,1216,497.802316893638,496.497038049993,0,0,1.32866625452755,-360,360,0,0,0,0,8.04922932825795e-13,0
90,PERFORM2019:AC:774:1519:1,76,774,1,1216,22.2232424619137,13.7650147083231,0,0,-0.00271167799172467,-360,360,0,0,0,0,1.8820061544122e-11,0
91,PERFORM2019:AC:774:900:1,774,77,1,1725,13.7650147082907,4.79335663366711,0,0,-0.00745253637549848,-360,360,0,0,0,0,6.29644310689727e-12,0
92,PERFORM2019:AC:900:1519:1,76,77,1,1725,22.243562579917,4.91196280792878,0,0,-0.0101642143672231,-360,360,0,0,0,0,3.14112133789626e-12,0
